Simulation_Workspace/results/load_flow/line_results.csv
Case,Branch,Type,From_bus,To_bus,V_from_pu,V_to_pu,I_A,P_from_MW,Q_from_MVAr,S_from_MVA,P_to_MW,Q_to_MVAr,P_loss_MW,Q_loss_MVAr,Note
LF1,"ZGRID (grid equivalent)",equivalent,BGRID230,B230_1,1,0.998671545792085,943.044275465888,-374.483506224522,29.9861999407979,375.682137745596,-374.483506224522,22.9005021528825,0,7.08569778791543,"ESTIMATED impedance from the GIS withstand rating - weakest number in the model"
LF1,"BUS COUPLER 10BAY12",breaker,B230_1,B230_2,NaN,NaN,NaN,NaN,0,NaN,NaN,0,NaN,0,"CLOSED (ASSUMPTION - normal state not in the document set). Solver merges BUS 1 and BUS 2; flow not observable from bus voltages."
LF1,"GAT BAY CB 10BAY20 (open, snubber path)",breaker,B230_2,GAT_HV,0.998671545792085,0.957242030286996,0.00919783429955535,0.00227021122952155,0.00286993686726344,0.00365928909061906,0.00201641076211532,0.00286993686726344,0.000253800467406231,3.3881317890172e-19,"OPEN: the 1e6 ohm SPS snubber is what gives the GAT HV terminal a defined voltage instead of a floating node. Numerical artefact of the block, not plant equipment."
LF2,"ZGRID (grid equivalent)",equivalent,BGRID230,B230_1,1,0.998484894783389,943.792788580999,-374.466580625256,33.7043641553631,375.980324177063,-374.466580625256,26.6074137832299,0,7.09695037213316,"ESTIMATED impedance from the GIS withstand rating - weakest number in the model"
LF2,"BUS COUPLER 10BAY12",breaker,B230_1,B230_2,NaN,NaN,NaN,NaN,0,NaN,NaN,0,NaN,0,"CLOSED (ASSUMPTION - normal state not in the document set). Solver merges BUS 1 and BUS 2; flow not observable from bus voltages."
LF3,"ZGRID (grid equivalent)",equivalent,BGRID230,B230_1,1,0.998959517722561,823.769372166215,-327.329807885273,23.4174862180997,328.16639345153,-327.329807885273,18.0108177401074,0,5.40666847799236,"ESTIMATED impedance from the GIS withstand rating - weakest number in the model"
LF3,"BUS COUPLER 10BAY12",breaker,B230_1,B230_2,NaN,NaN,NaN,NaN,0,NaN,NaN,0,NaN,0,"CLOSED (ASSUMPTION - normal state not in the document set). Solver merges BUS 1 and BUS 2; flow not observable from bus voltages."
LF3,"GAT BAY CB 10BAY20 (open, snubber path)",breaker,B230_2,GAT_HV,0.998959517722561,0.957234895522896,0.00777194398836699,0.00224949262670211,0.00212269152678384,0.00309290096761391,0.00206828328662716,0.00212269152678384,0.000181209340074941,0,"OPEN: the 1e6 ohm SPS snubber is what gives the GAT HV terminal a defined voltage instead of a floating node. Numerical artefact of the block, not plant equipment."
LF4,"ZGRID (grid equivalent)",equivalent,BGRID230,B230_1,1,0.998768076512271,824.482596862235,-327.319742698281,27.2310746434095,328.450521975996,-327.319742698281,21.815039857419,0,5.41603478599051,"ESTIMATED impedance from the GIS withstand rating - weakest number in the model"
LF4,"BUS COUPLER 10BAY12",breaker,B230_1,B230_2,NaN,NaN,NaN,NaN,0,NaN,NaN,0,NaN,0,"CLOSED (ASSUMPTION - normal state not in the document set). Solver merges BUS 1 and BUS 2; flow not observable from bus voltages."
